24
qcio_charge=-1 qcio_multiplicity=2 qcio__identifiers_name=caffeine IUPAC 1,3,7-trimethylpurine-2,6-dione
O                     0.470000000548     2.568799999431     0.000600002289
O                    -3.127100001630    -0.443600000395    -0.000300001144
N                    -0.968600002583    -1.312500000178     0.000000000000
N                     2.218199999211     0.141200000574    -0.000300001144
N                    -1.347700000381     1.079700001240    -0.000099998618
N                     1.411900001834    -1.937199999875     0.000200002527
C                     0.857899998396     0.259199999091    -0.000799999524
C                     0.389699999423    -1.026400002556    -0.000399999762
C                     0.030699998914     1.421999999788    -0.000600002289
C                    -1.906100001198    -0.249500000899    -0.000399999762
C                     2.503200001457    -1.199800002474     0.000300001144
C                    -1.427600001744    -2.695999997759     0.000799999524
C                     3.192600000986     1.206100000045     0.000300001144
C                    -2.296900001289     2.188100002585     0.000700000906
H                     3.516299997382    -1.578699997746     0.000799999524
H                    -1.045099998034    -3.197299999510    -0.893700000888
H                    -2.518600000223    -2.759600002215     0.001100000668
H                    -1.044699998272    -3.196299997459     0.895699999697
H                     4.199200002105     0.780099999751     0.000200002527
H                     3.046800000505     1.809200002022    -0.899199998935
H                     3.046599997979     1.808299998590     0.900399998221
H                    -1.808699998351     3.165100000166    -0.000300001144
H                    -2.932200002610     2.102699997883     0.888099998932
H                    -2.934600001181     2.102100000886    -0.884900000837
